<?xml version="1.0" encoding="UTF-8"?>
<net version="1.9" junctionCornerDetail="5" limitTurnSpeed="5.5" xmlns:xsi="http://www.w3.org/2001/XMLSchema-instance" xsi:noNamespaceSchemaLocation="http://sumo.dlr.de/xsd/net_file.xsd">

    <location netOffset="0.00,0.00" convBoundary="0.00,0.00,200.00,200.00" origBoundary="-10000000000.00,-10000000000.00,10000000000.00,10000000000.00" projParameter="!"/>

    <edge id="edge1" from="junction1" to="junction2" priority="1">
        <lane id="edge1_0" index="0" speed="13.89" length="100.00" shape="0.00,0.00 100.00,0.00"/>
    </edge>
    <edge id="edge2" from="junction2" to="junction1" priority="1">
        <lane id="edge2_0" index="0" speed="13.89" length="100.00" shape="100.00,0.00 0.00,0.00"/>
    </edge>
    <edge id="edge3" from="junction3" to="junction2" priority="1">
        <lane id="edge3_0" index="0" speed="13.89" length="100.00" shape="0.00,100.00 0.00,0.00"/>
    </edge>
    <edge id="edge4" from="junction2" to="junction3" priority="1">
        <lane id="edge4_0" index="0" speed="13.89" length="100.00" shape="0.00,0.00 0.00,100.00"/>
    </edge>

    <junction id="junction1" type="priority" x="0.00" y="0.00" incLanes="" intLanes="" shape="0.00,0.00 0.00,10.00 10.00,10.00 10.00,0.00 0.00,0.00"/>
    <junction id="junction2" type="traffic_light" x="0.00" y="0.00" incLanes="edge1_0 edge3_0" intLanes=":junction2_0_0 :junction2_1_0" shape="0.00,0.00 0.00,10.00 10.00,10.00 10.00,0.00 0.00,0.00">
        <request index="0" response="00" foes="00" cont="0"/>
        <request index="1" response="00" foes="00" cont="0"/>
    </junction>
    <junction id="junction3" type="priority" x="0.00" y="100.00" incLanes="" intLanes="" shape="0.00,100.00 0.00,110.00 10.00,110.00 10.00,100.00 0.00,100.00"/>

    <connection from="edge1" to="edge2" fromLane="0" toLane="0" via=":junction2_0_0" dir="l" state="M"/>
    <connection from="edge3" to="edge4" fromLane="0" toLane="0" via=":junction2_1_0" dir="r" state="M"/>

    <internalLane id=":junction2_0_0" from="edge1" to="edge2" fromLane="0" toLane="0" dir="l" state="M"/>
    <internalLane id=":junction2_1_0" from="edge3" to="edge4" fromLane="0" toLane="0" dir="r" state="M"/>

</net>
