<?xml version="1.0" encoding="UTF-8"?>
<routes xmlns:xsi="http://www.w3.org/2001/XMLSchema-instance" xsi:noNamespaceSchemaLocation="http://sumo.dlr.de/xsd/routes_file.xsd">

    <vType id="car" accel="2.6" decel="4.5" sigma="0.5" length="5" maxSpeed="50"/>

    <route id="route1" edges="edge1 edge2"/>
    <route id="route2" edges="edge3 edge4"/>

    <flow id="flow1" type="car" route="route1" begin="0" end="3600" vehsPerHour="300"/>
    <flow id="flow2" type="car" route="route2" begin="0" end="3600" vehsPerHour="200"/>

</routes>
