<?xml version="1.0" encoding="UTF-8"?>

<!-- generated on 2025-09-25 13:38:29.725460 by osmWebWizard.py v1_19_0+0000-baa66a0f364
<configuration>
    <net-file value="C:\Users\deepa\AppData\Roaming\Microsoft\Windows\Start Menu\Programs\SUMO\2025-09-25-13-32-29\osm.net.xml.gz"/>
    <output-trip-file value="C:\Users\deepa\AppData\Roaming\Microsoft\Windows\Start Menu\Programs\SUMO\2025-09-25-13-32-29\osm.passenger.trips.xml"/>
    <route-file value="C:\Users\deepa\AppData\Roaming\Microsoft\Windows\Start Menu\Programs\SUMO\2025-09-25-13-32-29\osm.passenger.rou.xml"/>
    <prefix value="veh"/>
    <trip-attributes value="departLane=&quot;best&quot;"/>
    <fringe-start-attributes value="departSpeed=&quot;max&quot;"/>
    <vehicle-class value="passenger"/>
    <lanes value="True"/>
    <fringe-factor value="5"/>
    <allow-fringe.min-length value="1000.0"/>
    <via-edge-types value="highway.motorway,highway.motorway_link,highway.trunk_link,highway.primary_link,highway.secondary_link,highway.tertiary_link"/>
    <min-distance value="300.0"/>
    <min-distance.fringe value="10.0"/>
    <remove-loops value="True"/>
    <validate value="True"/>
    <insertion-density value="12.0"/>
</configuration>
-->

<!-- generated on 2025-09-25 13:35:56 by Eclipse SUMO duarouter Version 1.19.0
<configuration xmlns:xsi="http://www.w3.org/2001/XMLSchema-instance" xsi:noNamespaceSchemaLocation="http://sumo.dlr.de/xsd/duarouterConfiguration.xsd">

    <input>
        <net-file value="C:\Users\deepa\AppData\Roaming\Microsoft\Windows\Start Menu\Programs\SUMO\2025-09-25-13-32-29\osm.net.xml.gz"/>
        <route-files value="C:\Users\deepa\AppData\Roaming\Microsoft\Windows\Start Menu\Programs\SUMO\2025-09-25-13-32-29\osm.passenger.trips.xml"/>
    </input>

    <output>
        <output-file value="C:\Users\deepa\AppData\Roaming\Microsoft\Windows\Start Menu\Programs\SUMO\2025-09-25-13-32-29\osm.passenger.trips.xml.tmp"/>
        <alternatives-output value="NUL"/>
        <write-trips value="true"/>
    </output>

    <processing>
        <remove-loops value="true"/>
    </processing>

    <time>
        <begin value="0.0"/>
        <end value="3600.0"/>
    </time>

    <report>
        <no-warnings value="true"/>
        <ignore-errors value="true"/>
        <no-step-log value="true"/>
    </report>

</configuration>
-->

<routes xmlns:xsi="http://www.w3.org/2001/XMLSchema-instance" xsi:noNamespaceSchemaLocation="http://sumo.dlr.de/xsd/routes_file.xsd">
    <vType id="veh_passenger" vClass="passenger"/>
    <trip id="veh0" type="veh_passenger" depart="0.00" departLane="best" from="1428542849#5" to="1056582751#0"/>
    <trip id="veh1" type="veh_passenger" depart="0.28" departLane="best" from="-423283907#0" to="-24576822#20"/>
    <trip id="veh2" type="veh_passenger" depart="0.55" departLane="best" from="36801841#1-AddedOffRampEdge" to="189430891#1"/>
    <trip id="veh3" type="veh_passenger" depart="0.83" departLane="best" from="-423754779#1" to="-1116507604"/>
    <trip id="veh4" type="veh_passenger" depart="1.10" departLane="best" from="717467042#0" to="-1056585536#1"/>
    <trip id="veh5" type="veh_passenger" depart="1.38" departLane="best" from="-203569944#0" to="-1081102191#4"/>
    <trip id="veh6" type="veh_passenger" depart="1.66" departLane="best" from="-1056583160" to="189430870#3"/>
    <trip id="veh7" type="veh_passenger" depart="1.93" departLane="best" from="-1428999970#4" to="1116226811#0"/>
    <trip id="veh8" type="veh_passenger" depart="2.21" departLane="best" from="-207565747#24" to="1238240668#0"/>
    <trip id="veh9" type="veh_passenger" depart="2.48" departLane="best" from="-423391653#0" to="1039518915#3"/>
    <trip id="veh10" type="veh_passenger" depart="2.76" departLane="best" from="423391562#6" to="202969533#32"/>
    <trip id="veh11" type="veh_passenger" depart="3.04" departLane="best" from="-423607568#1" to="-1306729038#1"/>
    <trip id="veh12" type="veh_passenger" depart="3.31" departLane="best" from="-718279138#0" to="-423607487#2"/>
    <trip id="veh13" type="veh_passenger" depart="3.59" departLane="best" from="-1122836923" to="-1133679364#2"/>
    <trip id="veh14" type="veh_passenger" depart="3.86" departLane="best" from="-423591271#0" to="1244535036"/>
    <trip id="veh15" type="veh_passenger" depart="4.14" departLane="best" from="423391578" to="35308230#9"/>
    <trip id="veh16" type="veh_passenger" depart="4.41" departLane="best" from="1082059009#5" to="774647978#0"/>
    <trip id="veh17" type="veh_passenger" depart="4.69" departLane="best" from="423779409" to="1123304903#0"/>
    <trip id="veh18" type="veh_passenger" depart="4.97" departLane="best" from="423590909#2" to="-1305177006#8"/>
    <trip id="veh19" type="veh_passenger" depart="5.24" departLane="best" from="423627841#13" to="1205466050"/>
    <trip id="veh20" type="veh_passenger" depart="5.52" departLane="best" from="207565747#20" to="1242725936"/>
    <trip id="veh21" type="veh_passenger" depart="5.79" departLane="best" from="-343503830#7" to="-423391606"/>
    <trip id="veh22" type="veh_passenger" depart="6.07" departLane="best" from="-1082074670#0" to="369835482#8"/>
    <trip id="veh23" type="veh_passenger" depart="6.35" departLane="best" from="-1170526500" to="-423283931#11"/>
    <trip id="veh24" type="veh_passenger" depart="6.62" departLane="best" from="1427060973#0" to="423754687"/>
    <trip id="veh25" type="veh_passenger" depart="6.90" departLane="best" from="-423754764#1" to="-189447824#1"/>
    <trip id="veh26" type="veh_passenger" depart="7.17" departLane="best" from="-408833001#1" to="-682347516#0"/>
    <trip id="veh27" type="veh_passenger" depart="7.45" departLane="best" from="1428980101" to="1249868222"/>
    <trip id="veh28" type="veh_passenger" depart="7.73" departLane="best" from="1428928034#1" to="35308230#2"/>
    <trip id="veh29" type="veh_passenger" depart="8.00" departLane="best" from="-1381051643" to="423779437"/>
    <trip id="veh30" type="veh_passenger" depart="8.28" departLane="best" from="-875114558#1" to="-1428629923#0"/>
    <trip id="veh31" type="veh_passenger" depart="8.55" departLane="best" from="-1135157890" to="189447728#1"/>
    <trip id="veh32" type="veh_passenger" depart="8.83" departLane="best" from="423591196#0" to="39451609#11"/>
    <trip id="veh33" type="veh_passenger" depart="9.11" departLane="best" from="-343503831#5" to="-1056588277"/>
    <trip id="veh34" type="veh_passenger" depart="9.38" departLane="best" from="-423590948" to="414771608"/>
    <trip id="veh35" type="veh_passenger" depart="9.66" departLane="best" from="189447875#1" to="715646312"/>
    <trip id="veh36" type="veh_passenger" depart="9.93" departLane="best" from="423737599#1" to="-423590921#9"/>
    <trip id="veh37" type="veh_passenger" depart="10.21" departLane="best" from="168928123#4" to="-451099311#0"/>
    <trip id="veh38" type="veh_passenger" depart="10.49" departLane="best" from="446924544#6" to="1012414569#2"/>
    <trip id="veh39" type="veh_passenger" depart="10.76" departLane="best" from="39451643#9" to="-369837720#6"/>
    <trip id="veh40" type="veh_passenger" depart="11.04" departLane="best" from="1171907173" to="380700998#5"/>
    <trip id="veh41" type="veh_passenger" depart="11.31" departLane="best" from="-1221676696#2" to="423779397#1"/>
    <trip id="veh42" type="veh_passenger" depart="11.59" departLane="best" from="47652182#12" to="-203569947#0"/>
    <trip id="veh43" type="veh_passenger" depart="11.86" departLane="best" from="-977466312#15" to="-1081128966#1"/>
    <trip id="veh44" type="veh_passenger" depart="12.14" departLane="best" from="-1120275884" to="-1081102191#4"/>
    <trip id="veh46" type="veh_passenger" depart="12.69" departLane="best" from="423283893#7" to="-717467043#11"/>
    <trip id="veh47" type="veh_passenger" depart="12.97" departLane="best" from="-1081327397#0" to="423779443#10"/>
    <trip id="veh48" type="veh_passenger" depart="13.24" departLane="best" from="953260278" to="1081731563#0"/>
    <trip id="veh49" type="veh_passenger" depart="13.52" departLane="best" from="774608658#6" to="-423607560#3"/>
    <trip id="veh50" type="veh_passenger" depart="13.80" departLane="best" from="-1042838378" to="343503830#2"/>
    <trip id="veh51" type="veh_passenger" depart="14.07" departLane="best" from="189447693#0" to="-1082059013#2"/>
    <trip id="veh52" type="veh_passenger" depart="14.35" departLane="best" from="408821895" to="1428923867#1"/>
    <trip id="veh53" type="veh_passenger" depart="14.62" departLane="best" from="1190967212#1" to="-773601312#6"/>
    <trip id="veh54" type="veh_passenger" depart="14.90" departLane="best" from="952621341" to="717467041#5"/>
    <trip id="veh55" type="veh_passenger" depart="15.18" departLane="best" from="423737592#0" to="-392064534#9"/>
    <trip id="veh56" type="veh_passenger" depart="15.45" departLane="best" from="1078745893" to="-1428999970#14"/>
    <trip id="veh57" type="veh_passenger" depart="15.73" departLane="best" from="444065242#12" to="423627841#6"/>
    <trip id="veh58" type="veh_passenger" depart="16.00" departLane="best" from="423391760#3" to="1428542844#4"/>
    <trip id="veh59" type="veh_passenger" depart="16.28" departLane="best" from="1249853218" to="-1285459431"/>
    <trip id="veh60" type="veh_passenger" depart="16.56" departLane="best" from="370186847#0" to="1082226999#1"/>
    <trip id="veh61" type="veh_passenger" depart="16.83" departLane="best" from="39451630#1" to="1081746640"/>
    <trip id="veh62" type="veh_passenger" depart="17.11" departLane="best" from="-1012414569#3" to="-423591208#0"/>
    <trip id="veh63" type="veh_passenger" depart="17.38" departLane="best" from="-1056582223#1" to="58361000-AddedOffRampEdge"/>
    <trip id="veh64" type="veh_passenger" depart="17.66" departLane="best" from="-423737623#1" to="423590912#21"/>
    <trip id="veh65" type="veh_passenger" depart="17.93" departLane="best" from="-423590891#0" to="1081314866"/>
    <trip id="veh66" type="veh_passenger" depart="18.21" departLane="best" from="423737615#1" to="-717089710#2"/>
    <trip id="veh67" type="veh_passenger" depart="18.49" departLane="best" from="1085812641" to="1056585516#1"/>
    <trip id="veh68" type="veh_passenger" depart="18.76" departLane="best" from="-1081717220#1" to="369837727#7"/>
    <trip id="veh69" type="veh_passenger" depart="19.04" departLane="best" from="-374688962#1" to="-1238271284#2"/>
    <trip id="veh70" type="veh_passenger" depart="19.31" departLane="best" from="1056581954#0" to="1120495287"/>
    <trip id="veh71" type="veh_passenger" depart="19.59" departLane="best" from="39452781#2" to="-423627880#1"/>
    <trip id="veh72" type="veh_passenger" depart="19.87" departLane="best" from="717470222#5" to="189447894#2"/>
    <trip id="veh73" type="veh_passenger" depart="20.14" departLane="best" from="-1082226998#1" to="35308233#11"/>
    <trip id="veh74" type="veh_passenger" depart="20.42" departLane="best" from="189430905#0" to="-423590912#4"/>
    <trip id="veh75" type="veh_passenger" depart="20.69" departLane="best" from="952608066#1" to="1428999970#4"/>
    <trip id="veh76" type="veh_passenger" depart="20.97" departLane="best" from="-774633867" to="1138247791"/>
    <trip id="veh77" type="veh_passenger" depart="21.25" departLane="best" from="-1221676681" to="-279990639#1"/>
    <trip id="veh78" type="veh_passenger" depart="21.52" departLane="best" from="423607512" to="1238236489#6"/>
    <trip id="veh79" type="veh_passenger" depart="21.80" departLane="best" from="343506908#5" to="-207565747#20"/>
    <trip id="veh80" type="veh_passenger" depart="22.07" departLane="best" from="-1081738066" to="1392923856#2"/>
    <trip id="veh81" type="veh_passenger" depart="22.35" departLane="best" from="343503831#3" to="423779480#2"/>
    <trip id="veh82" type="veh_passenger" depart="22.63" departLane="best" from="-423607568#0" to="1081731563#1"/>
    <trip id="veh83" type="veh_passenger" depart="22.90" departLane="best" from="-369837698#0" to="189131387#1"/>
    <trip id="veh85" type="veh_passenger" depart="23.45" departLane="best" from="-661755675#2" to="1190518833#2"/>
    <trip id="veh86" type="veh_passenger" depart="23.73" departLane="best" from="1053499501#0" to="39452787#18"/>
    <trip id="veh87" type="veh_passenger" depart="24.01" departLane="best" from="423391586#3" to="168952076#6"/>
    <trip id="veh89" type="veh_passenger" depart="24.56" departLane="best" from="-717471458#2" to="1040429414#1"/>
    <trip id="veh90" type="veh_passenger" depart="24.83" departLane="best" from="35308230#2-AddedOnRampEdge" to="189430844#1"/>
    <trip id="veh91" type="veh_passenger" depart="25.11" departLane="best" from="782592561#3" to="1136945265#3"/>
    <trip id="veh92" type="veh_passenger" depart="25.38" departLane="best" from="-661334130#2" to="-423607545#1"/>
    <trip id="veh93" type="veh_passenger" depart="25.66" departLane="best" from="423627841#13" to="369837724#5"/>
    <trip id="veh94" type="veh_passenger" depart="25.94" departLane="best" from="168952076#23" to="-875150164#8"/>
    <trip id="veh95" type="veh_passenger" depart="26.21" departLane="best" from="717467042#0" to="-423283932#3"/>
    <trip id="veh96" type="veh_passenger" depart="26.49" departLane="best" from="-370184225#3" to="488174453#4"/>
    <trip id="veh97" type="veh_passenger" depart="26.76" departLane="best" from="776796095#7" to="-423607576#0"/>
    <trip id="veh98" type="veh_passenger" depart="27.04" departLane="best" from="1120500716#1" to="1081113607"/>
    <trip id="veh99" type="veh_passenger" depart="27.32" departLane="best" from="977466316#0" to="423590977"/>
    <trip id="veh100" type="veh_passenger" depart="27.59" departLane="best" from="-773603310#9" to="56723584#19"/>
    <trip id="veh101" type="veh_passenger" depart="27.87" departLane="best" from="423591283#1" to="1428511389#2"/>
    <trip id="veh102" type="veh_passenger" depart="28.14" departLane="best" from="1056583576#1" to="-189447927#2"/>
    <trip id="veh103" type="veh_passenger" depart="28.42" departLane="best" from="623832915#1" to="1081316362"/>
    <trip id="veh104" type="veh_passenger" depart="28.70" departLane="best" from="423779423" to="782592563#8"/>
    <trip id="veh105" type="veh_passenger" depart="28.97" departLane="best" from="-39452782#2" to="39452786#7"/>
    <trip id="veh107" type="veh_passenger" depart="29.52" departLane="best" from="718279138#2" to="952621340"/>
    <trip id="veh108" type="veh_passenger" depart="29.80" departLane="best" from="1130548334#2" to="313488519#5-AddedOnRampEdge"/>
    <trip id="veh109" type="veh_passenger" depart="30.08" departLane="best" from="-1306585415" to="-423391753#0"/>
    <trip id="veh110" type="veh_passenger" depart="30.35" departLane="best" from="-773603310#4" to="1205855896#5"/>
    <trip id="veh111" type="veh_passenger" depart="30.63" departLane="best" from="-1082233884" to="-369837697#6"/>
    <trip id="veh112" type="veh_passenger" depart="30.90" departLane="best" from="-1081314487#0" to="1221676695#2"/>
    <trip id="veh113" type="veh_passenger" depart="31.18" departLane="best" from="-1079981489#1" to="423591309#4"/>
    <trip id="veh114" type="veh_passenger" depart="31.46" departLane="best" from="-1311203173#0" to="-759790599"/>
    <trip id="veh115" type="veh_passenger" depart="31.73" departLane="best" from="-1082226996#1" to="168928124#9"/>
    <trip id="veh116" type="veh_passenger" depart="32.01" departLane="best" from="-1243970552#2" to="774647980#1"/>
    <trip id="veh117" type="veh_passenger" depart="32.28" departLane="best" from="369835648#2" to="423754721#1"/>
    <trip id="veh118" type="veh_passenger" depart="32.56" departLane="best" from="423754761#1" to="-369837720#10"/>
    <trip id="veh119" type="veh_passenger" depart="32.83" departLane="best" from="1242795859#3" to="1306311278"/>
    <trip id="veh120" type="veh_passenger" depart="33.11" departLane="best" from="717155790#1" to="1221676689"/>
    <trip id="veh122" type="veh_passenger" depart="33.66" departLane="best" from="-189447703#8" to="299687974#6"/>
    <trip id="veh123" type="veh_passenger" depart="33.94" departLane="best" from="-369837700#1" to="451099396"/>
    <trip id="veh124" type="veh_passenger" depart="34.21" departLane="best" from="189289356#0" to="423400636"/>
    <trip id="veh125" type="veh_passenger" depart="34.49" departLane="best" from="-423590987" to="369837704#9"/>
    <trip id="veh126" type="veh_passenger" depart="34.77" departLane="best" from="1081980688#1" to="-977466323#4"/>
    <trip id="veh127" type="veh_passenger" depart="35.04" departLane="best" from="977466312#31" to="953260277"/>
    <trip id="veh128" type="veh_passenger" depart="35.32" departLane="best" from="-1081984270#3" to="189447921#4"/>
    <trip id="veh129" type="veh_passenger" depart="35.59" departLane="best" from="-39452782#2" to="623832916#0"/>
    <trip id="veh130" type="veh_passenger" depart="35.87" departLane="best" from="-423754755#1" to="-1311203738#1"/>
    <trip id="veh131" type="veh_passenger" depart="36.15" departLane="best" from="423590932" to="203598795#2"/>
    <trip id="veh132" type="veh_passenger" depart="36.42" departLane="best" from="-94496412" to="35308230#11"/>
    <trip id="veh133" type="veh_passenger" depart="36.70" departLane="best" from="-168927798#0" to="-1040121959#2"/>
    <trip id="veh134" type="veh_passenger" depart="36.97" departLane="best" from="423391760#3" to="-423400629#1"/>
    <trip id="veh135" type="veh_passenger" depart="37.25" departLane="best" from="168952079#7" to="682895479#2"/>
    <trip id="veh136" type="veh_passenger" depart="37.53" departLane="best" from="-1244002221#0" to="-1203885921#1"/>
    <trip id="veh137" type="veh_passenger" depart="37.80" departLane="best" from="1185945278" to="1124385756#0"/>
    <trip id="veh138" type="veh_passenger" depart="38.08" departLane="best" from="-423283892#0" to="1244553175"/>
    <trip id="veh139" type="veh_passenger" depart="38.35" departLane="best" from="313488519#2" to="-189447697#1"/>
    <trip id="veh140" type="veh_passenger" depart="38.63" departLane="best" from="1425310871#15" to="-392064554#0"/>
    <trip id="veh141" type="veh_passenger" depart="38.91" departLane="best" from="1056587306#2" to="423779480#0"/>
    <trip id="veh142" type="veh_passenger" depart="39.18" departLane="best" from="423591254#2" to="1122600930"/>
    <trip id="veh143" type="veh_passenger" depart="39.46" departLane="best" from="-717471458#2" to="423283922"/>
    <trip id="veh144" type="veh_passenger" depart="39.73" departLane="best" from="-103172954#1" to="374689139#1"/>
    <trip id="veh145" type="veh_passenger" depart="40.01" departLane="best" from="-1428515094#0" to="380700998#12"/>
    <trip id="veh146" type="veh_passenger" depart="40.28" departLane="best" from="-369835476#1" to="1122836923"/>
    <trip id="veh147" type="veh_passenger" depart="40.56" departLane="best" from="-720179205" to="-1040437652"/>
    <trip id="veh148" type="veh_passenger" depart="40.84" departLane="best" from="1082003222#1" to="423737638#1"/>
    <trip id="veh149" type="veh_passenger" depart="41.11" departLane="best" from="423779479#0" to="1116507603#2"/>
    <trip id="veh150" type="veh_passenger" depart="41.39" departLane="best" from="423590973" to="1214970058"/>
    <trip id="veh151" type="veh_passenger" depart="41.66" departLane="best" from="-1255163680#0" to="-1238263785#0"/>
    <trip id="veh152" type="veh_passenger" depart="41.94" departLane="best" from="-423590895#3" to="423779400#3"/>
    <trip id="veh153" type="veh_passenger" depart="42.22" departLane="best" from="423283928#2" to="-423607560#1"/>
    <trip id="veh154" type="veh_passenger" depart="42.49" departLane="best" from="423779408" to="189447843#0"/>
    <trip id="veh155" type="veh_passenger" depart="42.77" departLane="best" from="-369837727#7" to="1184935949"/>
    <trip id="veh156" type="veh_passenger" depart="43.04" departLane="best" from="39451643#9" to="-423754635#0"/>
    <trip id="veh157" type="veh_passenger" depart="43.32" departLane="best" from="682348188#7" to="1307653743#0"/>
    <trip id="veh158" type="veh_passenger" depart="43.60" departLane="best" from="-1306541383" to="59035954#1"/>
    <trip id="veh159" type="veh_passenger" depart="43.87" departLane="best" from="423607646#2" to="776552698#9"/>
    <trip id="veh160" type="veh_passenger" depart="44.15" departLane="best" from="-423391676#0" to="423737629#3"/>
    <trip id="veh161" type="veh_passenger" depart="44.42" departLane="best" from="-1056582748#0" to="36167773#5"/>
    <trip id="veh162" type="veh_passenger" depart="44.70" departLane="best" from="-423591311#0" to="59035955#4"/>
    <trip id="veh164" type="veh_passenger" depart="45.25" departLane="best" from="423391676#0" to="-408821895"/>
    <trip id="veh166" type="veh_passenger" depart="45.80" departLane="best" from="423627888#0" to="423607508"/>
    <trip id="veh167" type="veh_passenger" depart="46.08" departLane="best" from="235115525#2" to="423391751#1"/>
    <trip id="veh168" type="veh_passenger" depart="46.36" departLane="best" from="103172942#22" to="-423400721#3"/>
    <trip id="veh169" type="veh_passenger" depart="46.63" departLane="best" from="423283921#1" to="-343503830#10"/>
    <trip id="veh170" type="veh_passenger" depart="46.91" departLane="best" from="-1056582727" to="-169033815#7"/>
    <trip id="veh171" type="veh_passenger" depart="47.18" departLane="best" from="-423591271#1" to="423607628#1"/>
    <trip id="veh172" type="veh_passenger" depart="47.46" departLane="best" from="773120298#6" to="-423283934#0"/>
    <trip id="veh173" type="veh_passenger" depart="47.73" departLane="best" from="1428925100#1" to="-47652182#6"/>
    <trip id="veh174" type="veh_passenger" depart="48.01" departLane="best" from="782404743#4" to="1082059009#5"/>
    <trip id="veh175" type="veh_passenger" depart="48.29" departLane="best" from="-682895481#2" to="-1203884273"/>
    <trip id="veh176" type="veh_passenger" depart="48.56" departLane="best" from="774608657#7" to="1428999970#12"/>
    <trip id="veh177" type="veh_passenger" depart="48.84" departLane="best" from="764071334#0" to="-39452783#1"/>
    <trip id="veh178" type="veh_passenger" depart="49.11" departLane="best" from="-1116858402" to="-773601312#2"/>
    <trip id="veh179" type="veh_passenger" depart="49.39" departLane="best" from="35308228#3" to="-423590919#0"/>
    <trip id="veh180" type="veh_passenger" depart="49.67" departLane="best" from="1244556309#0" to="1081305217"/>
    <trip id="veh181" type="veh_passenger" depart="49.94" departLane="best" from="423779515#2" to="1203885920"/>
    <trip id="veh182" type="veh_passenger" depart="50.22" departLane="best" from="374688949" to="24576804#5"/>
    <trip id="veh183" type="veh_passenger" depart="50.49" departLane="best" from="103172942#18" to="532739775#8"/>
    <trip id="veh184" type="veh_passenger" depart="50.77" departLane="best" from="-1082074666" to="-313905501#6"/>
    <trip id="veh185" type="veh_passenger" depart="51.05" departLane="best" from="-369835482#6" to="189131397#2"/>
    <trip id="veh186" type="veh_passenger" depart="51.32" departLane="best" from="-423754666" to="1081728824"/>
    <trip id="veh187" type="veh_passenger" depart="51.60" departLane="best" from="169033815#12" to="-423591292#12"/>
    <trip id="veh188" type="veh_passenger" depart="51.87" departLane="best" from="31816417#2-AddedOnRampEdge" to="423400641#1"/>
    <trip id="veh189" type="veh_passenger" depart="52.15" departLane="best" from="-423590899#4" to="-691582319#3"/>
    <trip id="veh190" type="veh_passenger" depart="52.43" departLane="best" from="661332535#3" to="-423391735#3"/>
    <trip id="veh191" type="veh_passenger" depart="52.70" departLane="best" from="1238263472#1" to="-717451050#1"/>
    <trip id="veh192" type="veh_passenger" depart="52.98" departLane="best" from="-705045235#0" to="-189430903#2"/>
    <trip id="veh193" type="veh_passenger" depart="53.25" departLane="best" from="-423779445#1" to="1283135043#8"/>
    <trip id="veh194" type="veh_passenger" depart="53.53" departLane="best" from="-423400651" to="1118272424#1"/>
    <trip id="veh195" type="veh_passenger" depart="53.80" departLane="best" from="-1012414569#0" to="-423391562#11"/>
    <trip id="veh196" type="veh_passenger" depart="54.08" departLane="best" from="-772391522#0" to="1211225748#1"/>
    <trip id="veh197" type="veh_passenger" depart="54.36" departLane="best" from="-168928009#9" to="-1039682944#1"/>
    <trip id="veh198" type="veh_passenger" depart="54.63" departLane="best" from="776552698#7" to="-189447927#1"/>
    <trip id="veh199" type="veh_passenger" depart="54.91" departLane="best" from="1053499505#1" to="423779435"/>
    <trip id="veh200" type="veh_passenger" depart="55.18" departLane="best" from="423283928#0" to="-1428923255"/>
    <trip id="veh201" type="veh_passenger" depart="55.46" departLane="best" from="-1082242338#1" to="-1081313474"/>
    <trip id="veh202" type="veh_passenger" depart="55.74" departLane="best" from="1425310869#18" to="-423591331#0"/>
    <trip id="veh203" type="veh_passenger" depart="56.01" departLane="best" from="-423400629#9" to="369837703#4"/>
    <trip id="veh204" type="veh_passenger" depart="56.29" departLane="best" from="189289368#6" to="-279990639#0"/>
    <trip id="veh205" type="veh_passenger" depart="56.56" departLane="best" from="-189430874#1" to="1056582740"/>
    <trip id="veh206" type="veh_passenger" depart="56.84" departLane="best" from="-369837715#7" to="1056581952#1"/>
    <trip id="veh207" type="veh_passenger" depart="57.12" departLane="best" from="423591292#2" to="1081984265"/>
    <trip id="veh208" type="veh_passenger" depart="57.39" departLane="best" from="-717082337#0" to="-1386975341#2"/>
    <trip id="veh209" type="veh_passenger" depart="57.67" departLane="best" from="169033821#5" to="189447980#3"/>
    <trip id="veh210" type="veh_passenger" depart="57.94" departLane="best" from="1058039132#0" to="369837713#4"/>
    <trip id="veh211" type="veh_passenger" depart="58.22" departLane="best" from="-168928124#15" to="-1038929941#0"/>
    <trip id="veh212" type="veh_passenger" depart="58.50" departLane="best" from="-369837704#8" to="374689127"/>
    <trip id="veh213" type="veh_passenger" depart="58.77" departLane="best" from="-1185646382#0" to="-718279137#1"/>
    <trip id="veh214" type="veh_passenger" depart="59.05" departLane="best" from="-1428974754#1" to="-718837636#1"/>
    <trip id="veh215" type="veh_passenger" depart="59.32" departLane="best" from="1081317167" to="-1081113606#2"/>
    <trip id="veh216" type="veh_passenger" depart="59.60" departLane="best" from="369837727#1" to="423591263#1"/>
    <trip id="veh217" type="veh_passenger" depart="59.88" departLane="best" from="977466312#25" to="423293452"/>
    <trip id="veh218" type="veh_passenger" depart="60.15" departLane="best" from="-189131373#5" to="875092398#2"/>
    <trip id="veh219" type="veh_passenger" depart="60.43" departLane="best" from="-1243972219#1" to="717148840#3"/>
    <trip id="veh220" type="veh_passenger" depart="60.70" departLane="best" from="423754770#1" to="1255563201#1"/>
    <trip id="veh221" type="veh_passenger" depart="60.98" departLane="best" from="313905501#5" to="1081053993#0"/>
    <trip id="veh222" type="veh_passenger" depart="61.25" departLane="best" from="423590912#6" to="1117997331"/>
    <trip id="veh223" type="veh_passenger" depart="61.53" departLane="best" from="423779400#0" to="-369835485#0"/>
    <trip id="veh224" type="veh_passenger" depart="61.81" departLane="best" from="-1056581946" to="374689130#1"/>
    <trip id="veh225" type="veh_passenger" depart="62.08" departLane="best" from="369837722#3" to="1428515094#9"/>
    <trip id="veh226" type="veh_passenger" depart="62.36" departLane="best" from="-374688962#1" to="1081324526#1"/>
    <trip id="veh227" type="veh_passenger" depart="62.63" departLane="best" from="-1311963958" to="-423283901#1"/>
    <trip id="veh228" type="veh_passenger" depart="62.91" departLane="best" from="-1082059010#1" to="-423391556#5"/>
    <trip id="veh229" type="veh_passenger" depart="63.19" departLane="best" from="-423281031#1" to="-423591080#0"/>
    <trip id="veh230" type="veh_passenger" depart="63.46" departLane="best" from="-1082228998#1" to="1244471337#0"/>
    <trip id="veh231" type="veh_passenger" depart="63.74" departLane="best" from="343667285#8" to="189447930#5"/>
    <trip id="veh232" type="veh_passenger" depart="64.01" departLane="best" from="-235103510#16" to="1081329791#0"/>
    <trip id="veh233" type="veh_passenger" depart="64.29" departLane="best" from="-682895481#4" to="1082241060"/>
    <trip id="veh234" type="veh_passenger" depart="64.57" departLane="best" from="-717094174#4" to="-189447744"/>
    <trip id="veh235" type="veh_passenger" depart="64.84" departLane="best" from="717448199#1" to="423779474"/>
    <trip id="veh236" type="veh_passenger" depart="65.12" departLane="best" from="1221676691" to="189447966#2"/>
    <trip id="veh237" type="veh_passenger" depart="65.39" departLane="best" from="-423607493#3" to="374688947#6"/>
    <trip id="veh238" type="veh_passenger" depart="65.67" departLane="best" from="-423779440#5" to="-1038929943#0"/>
    <trip id="veh239" type="veh_passenger" depart="65.95" departLane="best" from="-423627884#2" to="-369837710#4"/>
    <trip id="veh240" type="veh_passenger" depart="66.22" departLane="best" from="-423591325#5" to="717462063"/>
    <trip id="veh241" type="veh_passenger" depart="66.50" departLane="best" from="-717155787" to="369837692#4"/>
    <trip id="veh242" type="veh_passenger" depart="66.77" departLane="best" from="-1116507605#1" to="1244532308"/>
    <trip id="veh243" type="veh_passenger" depart="67.05" departLane="best" from="207565747#26" to="-203569947#2"/>